# generated using pymatgen
data_FeBiO3
_symmetry_space_group_name_H-M   P2_1/m
_cell_length_a   5.52367947
_cell_length_b   15.66039793
_cell_length_c   11.10993963
_cell_angle_alpha   90.00000000
_cell_angle_beta   90.26928000
_cell_angle_gamma   90.00000000
_symmetry_Int_Tables_number   11
_chemical_formula_structural   FeBiO3
_chemical_formula_sum   'Fe16 Bi16 O48'
_cell_volume   961.03270110
_cell_formula_units_Z   16
loop_
 _symmetry_equiv_pos_site_id
 _symmetry_equiv_pos_as_xyz
  1  'x, y, z'
  2  '-x, -y, -z'
  3  '-x, y+1/2, -z'
  4  'x, -y+1/2, z'
loop_
 _atom_site_type_symbol
 _atom_site_label
 _atom_site_symmetry_multiplicity
 _atom_site_fract_x
 _atom_site_fract_y
 _atom_site_fract_z
 _atom_site_occupancy
  Fe  Fe0  4  0.239212  0.626373  0.376905  1
  Fe  Fe1  4  0.244679  0.124587  0.377344  1
  Fe  Fe2  4  0.248828  0.125960  0.877719  1
  Fe  Fe3  4  0.250604  0.623714  0.876657  1
  Bi  Bi4  4  0.204157  0.514951  0.126819  1
  Bi  Bi5  4  0.298654  0.013358  0.624739  1
  Bi  Bi6  2  0.210304  0.250000  0.138791  1
  Bi  Bi7  2  0.277807  0.250000  0.621932  1
  Bi  Bi8  2  0.291062  0.750000  0.638989  1
  Bi  Bi9  2  0.296087  0.750000  0.116992  1
  O  O10  4  0.000956  0.155840  0.254613  1
  O  O11  4  0.030302  0.099350  0.011540  1
  O  O12  4  0.038038  0.115322  0.520206  1
  O  O13  4  0.066008  0.636852  0.220802  1
  O  O14  4  0.221648  0.501793  0.835995  1
  O  O15  4  0.276309  0.001718  0.336133  1
  O  O16  4  0.436510  0.133174  0.723560  1
  O  O17  4  0.454620  0.615300  0.022964  1
  O  O18  4  0.476067  0.598319  0.509051  1
  O  O19  4  0.498304  0.655242  0.755558  1
  O  O20  2  0.202260  0.750000  0.922390  1
  O  O21  2  0.270555  0.250000  0.898244  1
  O  O22  2  0.301133  0.250000  0.419025  1
  O  O23  2  0.309938  0.750000  0.399964  1
