# generated using pymatgen
data_FeBiO3
_symmetry_space_group_name_H-M   P2_1/c
_cell_length_a   5.48836183
_cell_length_b   15.66765798
_cell_length_c   11.15317808
_cell_angle_alpha   90.00000000
_cell_angle_beta   90.70697688
_cell_angle_gamma   90.00000000
_symmetry_Int_Tables_number   14
_chemical_formula_structural   FeBiO3
_chemical_formula_sum   'Fe16 Bi16 O48'
_cell_volume   958.98627608
_cell_formula_units_Z   16
loop_
 _symmetry_equiv_pos_site_id
 _symmetry_equiv_pos_as_xyz
  1  'x, y, z'
  2  '-x, -y, -z'
  3  '-x, y+1/2, -z+1/2'
  4  'x, -y+1/2, z+1/2'
loop_
 _atom_site_type_symbol
 _atom_site_label
 _atom_site_symmetry_multiplicity
 _atom_site_fract_x
 _atom_site_fract_y
 _atom_site_fract_z
 _atom_site_occupancy
  Fe  Fe0  4  0.244820  0.625179  0.626873  1
  Fe  Fe1  4  0.245514  0.123556  0.616519  1
  Fe  Fe2  4  0.254155  0.124207  0.122885  1
  Fe  Fe3  4  0.256204  0.623889  0.131779  1
  Bi  Bi4  4  0.245944  0.014610  0.886381  1
  Bi  Bi5  4  0.245955  0.238322  0.342103  1
  Bi  Bi6  4  0.252666  0.739931  0.905085  1
  Bi  Bi7  4  0.264262  0.508995  0.857418  1
  O  O8  4  0.015122  0.593542  0.491167  1
  O  O9  4  0.046827  0.104531  0.765519  1
  O  O10  4  0.049223  0.117563  0.277878  1
  O  O11  4  0.066512  0.617444  0.972891  1
  O  O12  4  0.165139  0.249367  0.134227  1
  O  O13  4  0.174969  0.746548  0.611932  1
  O  O14  4  0.313727  0.000490  0.152826  1
  O  O15  4  0.321210  0.500809  0.121819  1
  O  O16  4  0.437871  0.638306  0.782957  1
  O  O17  4  0.452951  0.150409  0.478159  1
  O  O18  4  0.462583  0.124246  0.976937  1
  O  O19  4  0.473936  0.653728  0.265197  1
