# generated using pymatgen
data_FeBiO3
_symmetry_space_group_name_H-M   P1
_cell_length_a   5.51594720
_cell_length_b   5.54213219
_cell_length_c   15.84322405
_cell_angle_alpha   90.49238993
_cell_angle_beta   90.23315656
_cell_angle_gamma   90.06071081
_symmetry_Int_Tables_number   1
_chemical_formula_structural   FeBiO3
_chemical_formula_sum   'Fe8 Bi8 O24'
_cell_volume   484.30689330
_cell_formula_units_Z   8
loop_
 _symmetry_equiv_pos_site_id
 _symmetry_equiv_pos_as_xyz
  1  'x, y, z'
loop_
 _atom_site_type_symbol
 _atom_site_label
 _atom_site_symmetry_multiplicity
 _atom_site_fract_x
 _atom_site_fract_y
 _atom_site_fract_z
 _atom_site_occupancy
  Fe  Fe0  1  0.243881  0.241775  0.875334  1
  Fe  Fe1  1  0.244957  0.249340  0.625093  1
  Fe  Fe2  1  0.249296  0.243926  0.374777  1
  Fe  Fe3  1  0.249661  0.241165  0.125188  1
  Fe  Fe4  1  0.743235  0.747107  0.124808  1
  Fe  Fe5  1  0.744367  0.750705  0.876757  1
  Fe  Fe6  1  0.746967  0.747526  0.624019  1
  Fe  Fe7  1  0.750463  0.745701  0.374843  1
  Bi  Bi8  1  0.185846  0.733591  0.756569  1
  Bi  Bi9  1  0.234670  0.686972  0.009293  1
  Bi  Bi10  1  0.250989  0.695205  0.262581  1
  Bi  Bi11  1  0.252693  0.697737  0.510839  1
  Bi  Bi12  1  0.706799  0.261631  0.770901  1
  Bi  Bi13  1  0.745491  0.201180  0.014497  1
  Bi  Bi14  1  0.746562  0.197560  0.263814  1
  Bi  Bi15  1  0.752909  0.195900  0.514609  1
  O  O16  1  0.022665  0.984598  0.346547  1
  O  O17  1  0.049171  0.543024  0.866267  1
  O  O18  1  0.054219  0.566268  0.128760  1
  O  O19  1  0.055797  0.564548  0.624572  1
  O  O20  1  0.175678  0.274661  0.997561  1
  O  O21  1  0.178348  0.282056  0.495351  1
  O  O22  1  0.295572  0.312096  0.746090  1
  O  O23  1  0.315806  0.281866  0.245321  1
  O  O24  1  0.453730  0.553670  0.380062  1
  O  O25  1  0.465355  0.975646  0.096512  1
  O  O26  1  0.472841  0.982271  0.603191  1
  O  O27  1  0.481155  0.978835  0.862529  1
  O  O28  1  0.525766  0.483026  0.595605  1
  O  O29  1  0.530880  0.474404  0.097949  1
  O  O30  1  0.546921  0.055194  0.381847  1
  O  O31  1  0.554028  0.453044  0.885424  1
  O  O32  1  0.678470  0.782636  0.245349  1
  O  O33  1  0.760837  0.694038  0.746393  1
  O  O34  1  0.819073  0.783962  0.495588  1
  O  O35  1  0.822561  0.783913  0.997791  1
  O  O36  1  0.939209  0.068195  0.132858  1
  O  O37  1  0.947324  0.060828  0.633308  1
  O  O38  1  0.976174  0.026987  0.849807  1
  O  O39  1  0.977296  0.486031  0.347174  1
