# generated using pymatgen
data_FeBiO3
_symmetry_space_group_name_H-M   P1
_cell_length_a   5.55089454
_cell_length_b   7.75565212
_cell_length_c   11.16603720
_cell_angle_alpha   90.17512728
_cell_angle_beta   90.01166100
_cell_angle_gamma   90.00062117
_symmetry_Int_Tables_number   1
_chemical_formula_structural   FeBiO3
_chemical_formula_sum   'Fe8 Bi8 O24'
_cell_volume   480.70465747
_cell_formula_units_Z   8
loop_
 _symmetry_equiv_pos_site_id
 _symmetry_equiv_pos_as_xyz
  1  'x, y, z'
loop_
 _atom_site_type_symbol
 _atom_site_label
 _atom_site_symmetry_multiplicity
 _atom_site_fract_x
 _atom_site_fract_y
 _atom_site_fract_z
 _atom_site_occupancy
  Fe  Fe0  1  0.251977  0.750802  0.876869  1
  Fe  Fe1  1  0.254695  0.249959  0.872270  1
  Fe  Fe2  1  0.262035  0.247342  0.372350  1
  Fe  Fe3  1  0.270670  0.748856  0.372546  1
  Fe  Fe4  1  0.739970  0.250222  0.126211  1
  Fe  Fe5  1  0.746225  0.751481  0.125219  1
  Fe  Fe6  1  0.751843  0.247673  0.623992  1
  Fe  Fe7  1  0.752755  0.747598  0.629670  1
  Bi  Bi8  1  0.204522  0.027548  0.124521  1
  Bi  Bi9  1  0.209214  0.514761  0.122900  1
  Bi  Bi10  1  0.294416  0.473983  0.623983  1
  Bi  Bi11  1  0.298844  0.971322  0.626644  1
  Bi  Bi12  1  0.715205  0.504868  0.877540  1
  Bi  Bi13  1  0.786113  0.007116  0.871744  1
  Bi  Bi14  1  0.796035  0.489024  0.378143  1
  Bi  Bi15  1  0.807396  0.972191  0.376070  1
  O  O16  1  0.003094  0.785009  0.747674  1
  O  O17  1  0.009548  0.695939  0.000271  1
  O  O18  1  0.031028  0.805129  0.240837  1
  O  O19  1  0.069016  0.283397  0.025759  1
  O  O20  1  0.198003  0.501347  0.337889  1
  O  O21  1  0.201872  0.002084  0.909277  1
  O  O22  1  0.227816  0.999401  0.414724  1
  O  O23  1  0.305790  0.499763  0.840385  1
  O  O24  1  0.438554  0.717448  0.525436  1
  O  O25  1  0.445862  0.213075  0.725140  1
  O  O26  1  0.472434  0.226464  0.232842  1
  O  O27  1  0.500049  0.306721  0.493265  1
  O  O28  1  0.508455  0.808077  0.759123  1
  O  O29  1  0.511724  0.708278  0.000485  1
  O  O30  1  0.544943  0.774696  0.268650  1
  O  O31  1  0.566986  0.267904  0.970769  1
  O  O32  1  0.698114  0.501295  0.664811  1
  O  O33  1  0.710857  0.000107  0.588093  1
  O  O34  1  0.795009  0.000523  0.082208  1
  O  O35  1  0.805245  0.498313  0.162223  1
  O  O36  1  0.938193  0.724281  0.478022  1
  O  O37  1  0.949373  0.234743  0.772164  1
  O  O38  1  0.983140  0.193671  0.257354  1
  O  O39  1  0.994190  0.297468  0.501938  1
