# generated using pymatgen
data_FeBiO3
_symmetry_space_group_name_H-M   P1
_cell_length_a   5.54170418
_cell_length_b   11.14017347
_cell_length_c   15.55305670
_cell_angle_alpha   90.01972645
_cell_angle_beta   90.08744449
_cell_angle_gamma   90.02349490
_symmetry_Int_Tables_number   1
_chemical_formula_structural   FeBiO3
_chemical_formula_sum   'Fe16 Bi16 O48'
_cell_volume   960.17518868
_cell_formula_units_Z   16
loop_
 _symmetry_equiv_pos_site_id
 _symmetry_equiv_pos_as_xyz
  1  'x, y, z'
loop_
 _atom_site_type_symbol
 _atom_site_label
 _atom_site_symmetry_multiplicity
 _atom_site_fract_x
 _atom_site_fract_y
 _atom_site_fract_z
 _atom_site_occupancy
  Fe  Fe0  1  0.247986  0.130919  0.375225  1
  Fe  Fe1  1  0.254084  0.126914  0.125234  1
  Fe  Fe2  1  0.258192  0.124343  0.624551  1
  Fe  Fe3  1  0.258518  0.124515  0.876689  1
  Fe  Fe4  1  0.264767  0.629950  0.626660  1
  Fe  Fe5  1  0.267191  0.627792  0.873064  1
  Fe  Fe6  1  0.267999  0.628319  0.373399  1
  Fe  Fe7  1  0.274023  0.630325  0.124711  1
  Fe  Fe8  1  0.741652  0.874160  0.875686  1
  Fe  Fe9  1  0.743548  0.874121  0.625820  1
  Fe  Fe10  1  0.750978  0.870935  0.374959  1
  Fe  Fe11  1  0.756081  0.372792  0.626123  1
  Fe  Fe12  1  0.756367  0.874841  0.125782  1
  Fe  Fe13  1  0.758742  0.375098  0.872746  1
  Fe  Fe14  1  0.764843  0.374099  0.374746  1
  Fe  Fe15  1  0.774770  0.372825  0.123391  1
  Bi  Bi16  1  0.201740  0.880203  0.750139  1
  Bi  Bi17  1  0.212056  0.878036  0.262887  1
  Bi  Bi18  1  0.219571  0.878792  0.002832  1
  Bi  Bi19  1  0.222081  0.358252  0.750782  1
  Bi  Bi20  1  0.224688  0.873882  0.502639  1
  Bi  Bi21  1  0.297186  0.392338  0.499091  1
  Bi  Bi22  1  0.303511  0.378467  0.993336  1
  Bi  Bi23  1  0.312351  0.375518  0.235067  1
  Bi  Bi24  1  0.704631  0.125898  0.749529  1
  Bi  Bi25  1  0.710218  0.124693  0.262291  1
  Bi  Bi26  1  0.720004  0.120505  0.008026  1
  Bi  Bi27  1  0.724981  0.126227  0.498721  1
  Bi  Bi28  1  0.795732  0.624127  0.750640  1
  Bi  Bi29  1  0.806696  0.614183  0.501528  1
  Bi  Bi30  1  0.807086  0.624942  0.991164  1
  Bi  Bi31  1  0.809835  0.626586  0.234941  1
  O  O32  1  0.000087  0.241196  0.648796  1
  O  O33  1  0.004832  0.244925  0.852149  1
  O  O34  1  0.006205  0.496377  0.900972  1
  O  O35  1  0.008760  0.496245  0.404936  1
  O  O36  1  0.010440  0.493716  0.593768  1
  O  O37  1  0.021632  0.001911  0.099021  1
  O  O38  1  0.035200  0.759576  0.152184  1
  O  O39  1  0.049396  0.269646  0.134040  1
  O  O40  1  0.068267  0.976799  0.889414  1
  O  O41  1  0.071658  0.974044  0.617568  1
  O  O42  1  0.073510  0.976409  0.385005  1
  O  O43  1  0.206202  0.588175  0.748898  1
  O  O44  1  0.209537  0.662263  0.000601  1
  O  O45  1  0.209824  0.670000  0.500132  1
  O  O46  1  0.233141  0.584442  0.250342  1
  O  O47  1  0.291371  0.089137  0.249146  1
  O  O48  1  0.297537  0.079599  0.751816  1
  O  O49  1  0.313953  0.164910  0.998888  1
  O  O50  1  0.316209  0.151566  0.500735  1
  O  O51  1  0.447226  0.475474  0.110901  1
  O  O52  1  0.459937  0.773715  0.638307  1
  O  O53  1  0.464162  0.770597  0.863645  1
  O  O54  1  0.476463  0.768192  0.362124  1
  O  O55  1  0.487483  0.260269  0.348718  1
  O  O56  1  0.489920  0.260091  0.656707  1
  O  O57  1  0.490346  0.261570  0.845161  1
  O  O58  1  0.504936  0.503430  0.894672  1
  O  O59  1  0.507193  0.504419  0.405019  1
  O  O60  1  0.508747  0.506285  0.598988  1
  O  O61  1  0.522146  0.001189  0.099640  1
  O  O62  1  0.537656  0.241726  0.149724  1
  O  O63  1  0.546454  0.734498  0.137761  1
  O  O64  1  0.570676  0.025375  0.892988  1
  O  O65  1  0.572930  0.026179  0.384896  1
  O  O66  1  0.575464  0.028232  0.615174  1
  O  O67  1  0.709069  0.339385  0.998637  1
  O  O68  1  0.710128  0.329787  0.502069  1
  O  O69  1  0.730078  0.415357  0.250245  1
  O  O70  1  0.785473  0.911091  0.751631  1
  O  O71  1  0.791484  0.915273  0.249390  1
  O  O72  1  0.793419  0.417258  0.748361  1
  O  O73  1  0.815204  0.838682  0.000036  1
  O  O74  1  0.815684  0.851116  0.500131  1
  O  O75  1  0.947426  0.526747  0.111522  1
  O  O76  1  0.960128  0.731347  0.645109  1
  O  O77  1  0.962142  0.730859  0.855994  1
  O  O78  1  0.972990  0.233263  0.364022  1
  O  O79  1  0.989535  0.741637  0.347615  1
