# generated using pymatgen
data_FeBiO3
_symmetry_space_group_name_H-M   Pmc2_1
_cell_length_a   15.64651953
_cell_length_b   11.10232011
_cell_length_c   5.53330429
_cell_angle_alpha   90.00000000
_cell_angle_beta   90.00000000
_cell_angle_gamma   90.00000000
_symmetry_Int_Tables_number   26
_chemical_formula_structural   FeBiO3
_chemical_formula_sum   'Fe16 Bi16 O48'
_cell_volume   961.20505321
_cell_formula_units_Z   16
loop_
 _symmetry_equiv_pos_site_id
 _symmetry_equiv_pos_as_xyz
  1  'x, y, z'
  2  '-x, -y, z+1/2'
  3  '-x, y, z'
  4  'x, -y, z+1/2'
loop_
 _atom_site_type_symbol
 _atom_site_label
 _atom_site_symmetry_multiplicity
 _atom_site_fract_x
 _atom_site_fract_y
 _atom_site_fract_z
 _atom_site_occupancy
  Fe  Fe0  4  0.125126  0.370565  0.733101  1
  Fe  Fe1  4  0.125673  0.127077  0.246647  1
  Fe  Fe2  4  0.374430  0.373000  0.739258  1
  Fe  Fe3  4  0.376385  0.126426  0.243363  1
  Bi  Bi4  4  0.236414  0.375383  0.196603  1
  Bi  Bi5  4  0.264148  0.123541  0.791554  1
  Bi  Bi6  2  0.000000  0.110972  0.781443  1
  Bi  Bi7  2  0.000000  0.372752  0.206715  1
  Bi  Bi8  2  0.500000  0.130453  0.690670  1
  Bi  Bi9  2  0.500000  0.388011  0.198151  1
  O  O10  4  0.095392  0.002615  0.485439  1
  O  O11  4  0.116063  0.475436  0.054991  1
  O  O12  4  0.136152  0.267076  0.458525  1
  O  O13  4  0.152057  0.242517  0.972908  1
  O  O14  4  0.248872  0.085151  0.215418  1
  O  O15  4  0.252346  0.413128  0.771109  1
  O  O16  4  0.350017  0.263084  0.026208  1
  O  O17  4  0.364592  0.225128  0.540091  1
  O  O18  4  0.386756  0.029859  0.928024  1
  O  O19  4  0.405962  0.492480  0.486962  1
  O  O20  2  0.000000  0.169274  0.188183  1
  O  O21  2  0.000000  0.350213  0.799254  1
  O  O22  2  0.500000  0.151985  0.261818  1
  O  O23  2  0.500000  0.326322  0.786022  1
