# generated using pymatgen
data_FeBiO3
_symmetry_space_group_name_H-M   P2_1
_cell_length_a   5.54957434
_cell_length_b   15.62253451
_cell_length_c   11.01683416
_cell_angle_alpha   90.00000000
_cell_angle_beta   90.08548396
_cell_angle_gamma   90.00000000
_symmetry_Int_Tables_number   4
_chemical_formula_structural   FeBiO3
_chemical_formula_sum   'Fe16 Bi16 O48'
_cell_volume   955.14101549
_cell_formula_units_Z   16
loop_
 _symmetry_equiv_pos_site_id
 _symmetry_equiv_pos_as_xyz
  1  'x, y, z'
  2  '-x, y+1/2, -z'
loop_
 _atom_site_type_symbol
 _atom_site_label
 _atom_site_symmetry_multiplicity
 _atom_site_fract_x
 _atom_site_fract_y
 _atom_site_fract_z
 _atom_site_occupancy
  Fe  Fe0  2  0.233744  0.877034  0.375555  1
  Fe  Fe1  2  0.241069  0.628033  0.376725  1
  Fe  Fe2  2  0.243279  0.626714  0.873988  1
  Fe  Fe3  2  0.244211  0.874984  0.877251  1
  Fe  Fe4  2  0.249910  0.373902  0.372935  1
  Fe  Fe5  2  0.252885  0.126867  0.376538  1
  Fe  Fe6  2  0.257315  0.376054  0.875920  1
  Fe  Fe7  2  0.263223  0.125042  0.874973  1
  Bi  Bi8  2  0.184100  0.752015  0.120580  1
  Bi  Bi9  2  0.203289  0.759646  0.631935  1
  Bi  Bi10  2  0.208893  0.014033  0.625996  1
  Bi  Bi11  2  0.231900  0.511795  0.130349  1
  Bi  Bi12  2  0.290942  0.503400  0.621545  1
  Bi  Bi13  2  0.298552  0.989125  0.121259  1
  Bi  Bi14  2  0.300274  0.242972  0.132354  1
  Bi  Bi15  2  0.304324  0.262140  0.628771  1
  O  O16  2  0.007180  0.595002  0.509309  1
  O  O17  2  0.022145  0.341204  0.236007  1
  O  O18  2  0.022694  0.151185  0.239428  1
  O  O19  2  0.039538  0.881732  0.027899  1
  O  O20  2  0.050411  0.617128  0.024406  1
  O  O21  2  0.063081  0.365384  0.719187  1
  O  O22  2  0.063438  0.140036  0.722336  1
  O  O23  2  0.066335  0.889809  0.529828  1
  O  O24  2  0.192316  0.997844  0.845981  1
  O  O25  2  0.204154  0.496707  0.337580  1
  O  O26  2  0.217039  0.249677  0.427703  1
  O  O27  2  0.236664  0.250095  0.900994  1
  O  O28  2  0.270662  0.750767  0.405172  1
  O  O29  2  0.285653  0.751208  0.923716  1
  O  O30  2  0.287715  0.503232  0.837382  1
  O  O31  2  0.296992  0.001689  0.337898  1
  O  O32  2  0.436310  0.625370  0.222950  1
  O  O33  2  0.439350  0.386661  0.526487  1
  O  O34  2  0.441154  0.858841  0.224193  1
  O  O35  2  0.449343  0.109116  0.023405  1
  O  O36  2  0.478745  0.405080  0.012354  1
  O  O37  2  0.479115  0.849351  0.738886  1
  O  O38  2  0.479516  0.657763  0.738349  1
  O  O39  2  0.496961  0.101361  0.507931  1
