# generated using pymatgen
data_FeBiO3
_symmetry_space_group_name_H-M   P2_1
_cell_length_a   11.03986977
_cell_length_b   5.52237229
_cell_length_c   15.67505912
_cell_angle_alpha   90.00000000
_cell_angle_beta   90.27240021
_cell_angle_gamma   90.00000000
_symmetry_Int_Tables_number   4
_chemical_formula_structural   FeBiO3
_chemical_formula_sum   'Fe16 Bi16 O48'
_cell_volume   955.63910034
_cell_formula_units_Z   16
loop_
 _symmetry_equiv_pos_site_id
 _symmetry_equiv_pos_as_xyz
  1  'x, y, z'
  2  '-x, y+1/2, -z'
loop_
 _atom_site_type_symbol
 _atom_site_label
 _atom_site_symmetry_multiplicity
 _atom_site_fract_x
 _atom_site_fract_y
 _atom_site_fract_z
 _atom_site_occupancy
  Fe  Fe0  2  0.122488  0.249144  0.126201  1
  Fe  Fe1  2  0.123212  0.250621  0.622535  1
  Fe  Fe2  2  0.123356  0.252796  0.376512  1
  Fe  Fe3  2  0.124860  0.243749  0.875019  1
  Fe  Fe4  2  0.374946  0.754582  0.374628  1
  Fe  Fe5  2  0.375367  0.748784  0.875851  1
  Fe  Fe6  2  0.376180  0.749329  0.126212  1
  Fe  Fe7  2  0.377833  0.755112  0.623598  1
  Bi  Bi8  2  0.121109  0.795929  0.509064  1
  Bi  Bi9  2  0.123616  0.715474  0.995224  1
  Bi  Bi10  2  0.127087  0.778260  0.751592  1
  Bi  Bi11  2  0.132440  0.703583  0.246268  1
  Bi  Bi12  2  0.359107  0.212022  0.253252  1
  Bi  Bi13  2  0.373519  0.281339  0.748135  1
  Bi  Bi14  2  0.380381  0.300322  0.508403  1
  Bi  Bi15  2  0.382700  0.292499  0.992415  1
  O  O16  2  0.013533  0.526454  0.404724  1
  O  O17  2  0.019943  0.532624  0.605997  1
  O  O18  2  0.024902  0.558127  0.112064  1
  O  O19  2  0.025218  0.549869  0.883232  1
  O  O20  2  0.077815  0.292575  0.252054  1
  O  O21  2  0.103580  0.193194  0.747967  1
  O  O22  2  0.152212  0.298350  0.002507  1
  O  O23  2  0.170736  0.217884  0.497245  1
  O  O24  2  0.223195  0.929579  0.633548  1
  O  O25  2  0.224381  0.938046  0.868559  1
  O  O26  2  0.241147  0.990437  0.343053  1
  O  O27  2  0.241411  0.991767  0.152320  1
  O  O28  2  0.259275  0.487119  0.344330  1
  O  O29  2  0.259303  0.487514  0.159057  1
  O  O30  2  0.276728  0.432496  0.864056  1
  O  O31  2  0.278374  0.431753  0.633292  1
  O  O32  2  0.329466  0.704441  0.003667  1
  O  O33  2  0.333441  0.719153  0.496938  1
  O  O34  2  0.398943  0.694155  0.750628  1
  O  O35  2  0.421980  0.789147  0.248891  1
  O  O36  2  0.480228  0.036952  0.607929  1
  O  O37  2  0.484376  0.031449  0.401076  1
  O  O38  2  0.488736  0.011542  0.898569  1
  O  O39  2  0.490769  0.009898  0.092759  1
