# generated using pymatgen
data_FeBiO3
_symmetry_space_group_name_H-M   Pm
_cell_length_a   5.51860531
_cell_length_b   15.66682438
_cell_length_c   11.10072026
_cell_angle_alpha   90.00000000
_cell_angle_beta   90.12783785
_cell_angle_gamma   90.00000000
_symmetry_Int_Tables_number   6
_chemical_formula_structural   FeBiO3
_chemical_formula_sum   'Fe16 Bi16 O48'
_cell_volume   959.75500976
_cell_formula_units_Z   16
loop_
 _symmetry_equiv_pos_site_id
 _symmetry_equiv_pos_as_xyz
  1  'x, y, z'
  2  'x, -y, z'
loop_
 _atom_site_type_symbol
 _atom_site_label
 _atom_site_symmetry_multiplicity
 _atom_site_fract_x
 _atom_site_fract_y
 _atom_site_fract_z
 _atom_site_occupancy
  Fe  Fe0  2  0.236092  0.125093  0.371079  1
  Fe  Fe1  2  0.237176  0.375504  0.873326  1
  Fe  Fe2  2  0.238535  0.375565  0.375129  1
  Fe  Fe3  2  0.242258  0.124414  0.869569  1
  Fe  Fe4  2  0.736080  0.124990  0.626686  1
  Fe  Fe5  2  0.741097  0.375264  0.127730  1
  Fe  Fe6  2  0.744367  0.374746  0.627714  1
  Fe  Fe7  2  0.750049  0.125687  0.127299  1
  Bi  Bi8  2  0.259441  0.260307  0.624283  1
  Bi  Bi9  2  0.288550  0.237295  0.122620  1
  Bi  Bi10  2  0.695159  0.264062  0.376778  1
  Bi  Bi11  2  0.787138  0.237573  0.871439  1
  Bi  Bi12  1  0.202251  0.000000  0.609741  1
  Bi  Bi13  1  0.220641  0.500000  0.625427  1
  Bi  Bi14  1  0.273253  0.500000  0.109923  1
  Bi  Bi15  1  0.273347  0.000000  0.124359  1
  Bi  Bi16  1  0.700719  0.000000  0.387977  1
  Bi  Bi17  1  0.767440  0.000000  0.871635  1
  Bi  Bi18  1  0.775944  0.500000  0.370952  1
  Bi  Bi19  1  0.783108  0.500000  0.883084  1
  O  O20  2  0.005523  0.153693  0.738724  1
  O  O21  2  0.028220  0.137409  0.229823  1
  O  O22  2  0.060489  0.373103  0.533257  1
  O  O23  2  0.206925  0.252689  0.910290  1
  O  O24  2  0.278176  0.247070  0.417465  1
  O  O25  2  0.425222  0.116757  0.023837  1
  O  O26  2  0.441566  0.370253  0.725775  1
  O  O27  2  0.464035  0.347034  0.242425  1
  O  O28  2  0.484106  0.405663  0.996528  1
  O  O29  2  0.490487  0.092978  0.502384  1
  O  O30  2  0.514898  0.153511  0.257545  1
  O  O31  2  0.514934  0.132931  0.765392  1
  O  O32  2  0.560757  0.387772  0.470384  1
  O  O33  2  0.688035  0.248328  0.593394  1
  O  O34  2  0.712511  0.253262  0.084185  1
  O  O35  2  0.925314  0.115779  0.973370  1
  O  O36  2  0.942449  0.355287  0.771032  1
  O  O37  2  0.950168  0.364956  0.272755  1
  O  O38  2  0.989672  0.408280  0.008768  1
  O  O39  2  0.990715  0.096423  0.494712  1
  O  O40  1  0.177399  0.000000  0.848870  1
  O  O41  1  0.187998  0.500000  0.829050  1
  O  O42  1  0.214884  0.500000  0.368028  1
  O  O43  1  0.290767  0.000000  0.327532  1
  O  O44  1  0.682481  0.000000  0.147759  1
  O  O45  1  0.688367  0.500000  0.175403  1
  O  O46  1  0.790893  0.000000  0.668474  1
  O  O47  1  0.806925  0.500000  0.640389  1
