# generated using pymatgen
data_FeBiO3
_symmetry_space_group_name_H-M   Cc
_cell_length_a   7.79283277
_cell_length_b   7.81441739
_cell_length_c   15.92223656
_cell_angle_alpha   90.00000000
_cell_angle_beta   90.62269954
_cell_angle_gamma   90.00000000
_symmetry_Int_Tables_number   9
_chemical_formula_structural   FeBiO3
_chemical_formula_sum   'Fe16 Bi16 O48'
_cell_volume   969.55038729
_cell_formula_units_Z   16
loop_
 _symmetry_equiv_pos_site_id
 _symmetry_equiv_pos_as_xyz
  1  'x, y, z'
  2  'x, -y, z+1/2'
  3  'x+1/2, y+1/2, z'
  4  'x+1/2, -y+1/2, z+1/2'
loop_
 _atom_site_type_symbol
 _atom_site_label
 _atom_site_symmetry_multiplicity
 _atom_site_fract_x
 _atom_site_fract_y
 _atom_site_fract_z
 _atom_site_occupancy
  Fe  Fe0  4  0.247066  0.005778  0.627654  1
  Fe  Fe1  4  0.247244  0.497154  0.377512  1
  Fe  Fe2  4  0.248049  0.002749  0.377947  1
  Fe  Fe3  4  0.249505  0.499388  0.628005  1
  Bi  Bi4  4  0.017114  0.275823  0.490121  1
  Bi  Bi5  4  0.018220  0.219553  0.988045  1
  Bi  Bi6  4  0.019599  0.273423  0.736900  1
  Bi  Bi7  4  0.034674  0.228366  0.242997  1
  O  O8  4  0.187076  0.254599  0.125624  1
  O  O9  4  0.188532  0.246498  0.381164  1
  O  O10  4  0.192763  0.483311  0.256543  1
  O  O11  4  0.195807  0.013850  0.507465  1
  O  O12  4  0.266103  0.452026  0.507929  1
  O  O13  4  0.266922  0.746241  0.396444  1
  O  O14  4  0.267830  0.044095  0.255960  1
  O  O15  4  0.269832  0.246884  0.655079  1
  O  O16  4  0.490453  0.058391  0.121905  1
  O  O17  4  0.491336  0.021301  0.406795  1
  O  O18  4  0.491608  0.446250  0.371121  1
  O  O19  4  0.491621  0.470939  0.154592  1
